# generated using pymatgen
data_IrO2
_symmetry_space_group_name_H-M   'P 1'
_cell_length_a   12.91595979
_cell_length_b   12.86170368
_cell_length_c   13.35234707
_cell_angle_alpha   91.45254490
_cell_angle_beta   88.37444919
_cell_angle_gamma   90.92111280
_symmetry_Int_Tables_number   1
_chemical_formula_structural   IrO2
_chemical_formula_sum   'Ir64 O128'
_cell_volume   2216.24168165
_cell_formula_units_Z   64
loop_
 _symmetry_equiv_pos_site_id
 _symmetry_equiv_pos_as_xyz
  1  'x, y, z'
loop_
 _atom_site_type_symbol
 _atom_site_label
 _atom_site_symmetry_multiplicity
 _atom_site_fract_x
 _atom_site_fract_y
 _atom_site_fract_z
 _atom_site_occupancy
  Ir  Ir0  1  0.78105187  0.80796115  0.55168719  1
  Ir  Ir1  1  0.72011496  0.55885014  0.70628760  1
  Ir  Ir2  1  0.90011686  0.04440818  0.59293830  1
  Ir  Ir3  1  0.02383602  0.51561044  0.51870902  1
  Ir  Ir4  1  0.82484228  0.63637226  0.13384947  1
  Ir  Ir5  1  0.09001694  0.96186255  0.39721686  1
  Ir  Ir6  1  0.13880672  0.93343255  0.95506124  1
  Ir  Ir7  1  0.31368241  0.44034665  0.01459936  1
  Ir  Ir8  1  0.05007346  0.83364173  0.54503999  1
  Ir  Ir9  1  0.60075478  0.17882997  0.84440508  1
  Ir  Ir10  1  0.45692784  0.07510758  0.51802929  1
  Ir  Ir11  1  0.60580067  0.77401730  0.72995161  1
  Ir  Ir12  1  0.82038709  0.60789835  0.35200557  1
  Ir  Ir13  1  0.35282236  0.25688636  0.86820486  1
  Ir  Ir14  1  0.49102381  0.32748259  0.19184145  1
  Ir  Ir15  1  0.52124252  0.76952671  0.46053056  1
  Ir  Ir16  1  0.23576836  0.50222376  0.62917480  1
  Ir  Ir17  1  0.84154243  0.94385010  0.13236603  1
  Ir  Ir18  1  0.67959914  0.41694465  0.88533798  1
  Ir  Ir19  1  0.40626525  0.68978088  0.06150752  1
  Ir  Ir20  1  0.03529831  0.69737930  0.34036314  1
  Ir  Ir21  1  0.03688880  0.37725344  0.24024055  1
  Ir  Ir22  1  0.48769516  0.90515972  0.23568496  1
  Ir  Ir23  1  0.87955332  0.23311320  0.40951532  1
  Ir  Ir24  1  0.49865861  0.55473974  0.36193963  1
  Ir  Ir25  1  0.13166615  0.61816596  0.75903809  1
  Ir  Ir26  1  0.23651926  0.94578439  0.66009729  1
  Ir  Ir27  1  0.73830775  0.26521997  0.69734255  1
  Ir  Ir28  1  0.22615110  0.19056413  0.09744412  1
  Ir  Ir29  1  0.31336789  0.88678499  0.44475100  1
  Ir  Ir30  1  0.50875220  0.85080921  0.95601077  1
  Ir  Ir31  1  0.65544400  0.02278078  0.66998211  1
  Ir  Ir32  1  0.31775202  0.78993573  0.83286041  1
  Ir  Ir33  1  0.27837406  0.14610839  0.32945866  1
  Ir  Ir34  1  0.00269202  0.26268163  0.61740115  1
  Ir  Ir35  1  0.19546236  0.35935827  0.45799602  1
  Ir  Ir36  1  0.97128674  0.23693835  0.03525278  1
  Ir  Ir37  1  0.60572517  0.73819327  0.19634910  1
  Ir  Ir38  1  0.98420813  0.83546247  0.78577272  1
  Ir  Ir39  1  0.52588116  0.62486544  0.83430703  1
  Ir  Ir40  1  0.17002700  0.60361690  0.16838141  1
  Ir  Ir41  1  0.79266159  0.39219030  0.51446360  1
  Ir  Ir42  1  0.69394606  0.40576661  0.29310153  1
  Ir  Ir43  1  0.49164919  0.23858547  0.61423091  1
  Ir  Ir44  1  0.12587794  0.39189529  0.83773125  1
  Ir  Ir45  1  0.81059574  0.40395651  0.10354834  1
  Ir  Ir46  1  0.25845871  0.21763225  0.66148704  1
  Ir  Ir47  1  0.47714386  0.09446198  0.04752123  1
  Ir  Ir48  1  0.72675731  0.92782026  0.36960816  1
  Ir  Ir49  1  0.72680960  0.01512416  0.94434386  1
  Ir  Ir50  1  0.24490649  0.65361865  0.41275051  1
  Ir  Ir51  1  0.56677875  0.48832317  0.09246707  1
  Ir  Ir52  1  0.65512826  0.17254275  0.37219280  1
  Ir  Ir53  1  0.37351573  0.70078680  0.63412628  1
  Ir  Ir54  1  0.69982626  0.18126108  0.11928894  1
  Ir  Ir55  1  0.30354665  0.42567190  0.28088509  1
  Ir  Ir56  1  0.90560622  0.42951597  0.81903808  1
  Ir  Ir57  1  0.52884859  0.50094274  0.57655114  1
  Ir  Ir58  1  0.94098636  0.07779729  0.82477468  1
  Ir  Ir59  1  0.03880548  0.77954988  0.05867610  1
  Ir  Ir60  1  0.78160769  0.78551903  0.96321601  1
  Ir  Ir61  1  0.23204500  0.83230663  0.20614646  1
  Ir  Ir62  1  0.06342561  0.03575236  0.18112806  1
  Ir  Ir63  1  0.03685482  0.50443738  0.00757896  1
  O  O64  1  0.02889094  0.98330398  0.53923304  1
  O  O65  1  0.17727686  0.45421703  0.96217679  1
  O  O66  1  0.67344638  0.67815007  0.82935121  1
  O  O67  1  0.03798778  0.97735030  0.85278299  1
  O  O68  1  0.36950169  0.40005461  0.88380858  1
  O  O69  1  0.35449749  0.57692430  0.98288475  1
  O  O70  1  0.98234046  0.90708605  0.12544042  1
  O  O71  1  0.70721886  0.88274976  0.66433454  1
  O  O72  1  0.10546903  0.63942391  0.03862418  1
  O  O73  1  0.70677037  0.32145446  0.17054444  1
  O  O74  1  0.51953171  0.69970190  0.96157994  1
  O  O75  1  0.56826452  0.56700123  0.70259151  1
  O  O76  1  0.39754417  0.66603806  0.77926596  1
  O  O77  1  0.80169836  0.50276851  0.89500425  1
  O  O78  1  0.55721701  0.99559340  0.57573060  1
  O  O79  1  0.80814964  0.73442703  0.42939274  1
  O  O80  1  0.01377541  0.17313657  0.91367803  1
  O  O81  1  0.18117470  0.84558893  0.06541378  1
  O  O82  1  0.51579605  0.44222022  0.44648719  1
  O  O83  1  0.73255700  0.14342735  0.24944623  1
  O  O84  1  0.90015527  0.71563017  0.02916498  1
  O  O85  1  0.02080414  0.34632909  0.74250133  1
  O  O86  1  0.46664589  0.98992528  0.94931408  1
  O  O87  1  0.70877102  0.70655643  0.07096115  1
  O  O88  1  0.64504135  0.87898656  0.24945423  1
  O  O89  1  0.50684890  0.77725830  0.61274122  1
  O  O90  1  0.25180459  0.35401834  0.59584276  1
  O  O91  1  0.93377632  0.33672120  0.14717993  1
  O  O92  1  0.34659635  0.10687393  0.10739387  1
  O  O93  1  0.57120492  0.29771511  0.31130841  1
  O  O94  1  0.35921365  0.79892420  0.97336224  1
  O  O95  1  0.09818247  0.74315580  0.20364699  1
  O  O96  1  0.31289575  0.82469796  0.69339402  1
  O  O97  1  0.14507918  0.59087684  0.31544020  1
  O  O98  1  0.52288963  0.70453600  0.32118138  1
  O  O99  1  0.48953967  0.38250575  0.64795371  1
  O  O100  1  0.50365588  0.61792555  0.14064611  1
  O  O101  1  0.95458593  0.16411804  0.50765529  1
  O  O102  1  0.65292809  0.84245632  0.46942501  1
  O  O103  1  0.29134721  0.69924727  0.15826411  1
  O  O104  1  0.39177018  0.22625787  0.72933441  1
  O  O105  1  0.57559078  0.31482525  0.89207592  1
  O  O106  1  0.68899040  0.43556288  0.03151219  1
  O  O107  1  0.45174188  0.17038568  0.91621372  1
  O  O108  1  0.86080723  0.51812465  0.71884151  1
  O  O109  1  0.96049023  0.59393458  0.41787888  1
  O  O110  1  0.99363084  0.83730402  0.40189127  1
  O  O111  1  0.82787282  0.47843574  0.26109459  1
  O  O112  1  0.49368634  0.85100798  0.80932023  1
  O  O113  1  0.14612861  0.05566083  0.04579242  1
  O  O114  1  0.12898116  0.19044929  0.60772691  1
  O  O115  1  0.34612717  0.57346987  0.34034250  1
  O  O116  1  0.23204598  0.49047618  0.77731007  1
  O  O117  1  0.69124937  0.28807758  0.56621522  1
  O  O118  1  0.40601824  0.11870514  0.37601861  1
  O  O119  1  0.19797149  0.87237474  0.53802365  1
  O  O120  1  0.06200081  0.80665008  0.91184259  1
  O  O121  1  0.77528834  0.11421286  0.65451752  1
  O  O122  1  0.35712452  0.97150162  0.56321760  1
  O  O123  1  0.08410203  0.50999488  0.65127107  1
  O  O124  1  0.10977605  0.70365223  0.47207256  1
  O  O125  1  0.71844325  0.69926207  0.64895408  1
  O  O126  1  0.89785551  0.95892482  0.72159851  1
  O  O127  1  0.53060645  0.01874931  0.15759311  1
  O  O128  1  0.96513298  0.13490969  0.69522599  1
  O  O129  1  0.55974758  0.62344484  0.48145731  1
  O  O130  1  0.00952296  0.69365240  0.75460842  1
  O  O131  1  0.89379154  0.52425974  0.05330123  1
  O  O132  1  0.20445388  0.69833494  0.85806535  1
  O  O133  1  0.44387234  0.39950251  0.06881672  1
  O  O134  1  0.03618065  0.52260167  0.85538448  1
  O  O135  1  0.34813834  0.92171929  0.19531647  1
  O  O136  1  0.72806477  0.49704696  0.41085287  1
  O  O137  1  0.10975815  0.27218476  0.07713799  1
  O  O138  1  0.22362345  0.65638436  0.64360890  1
  O  O139  1  0.26218956  0.48380723  0.15143590  1
  O  O140  1  0.15819665  0.39371876  0.32032819  1
  O  O141  1  0.66026403  0.03774177  0.81361269  1
  O  O142  1  0.60066404  0.18292243  0.69807079  1
  O  O143  1  0.19465358  0.52395926  0.48746759  1
  O  O144  1  0.84990078  0.79321988  0.83757699  1
  O  O145  1  0.06194745  0.49253516  0.15514964  1
  O  O146  1  0.98066425  0.29310578  0.33459092  1
  O  O147  1  0.14331531  0.93780780  0.25853544  1
  O  O148  1  0.82844940  0.95204295  0.27222199  1
  O  O149  1  0.26769271  0.78794874  0.34078675  1
  O  O150  1  0.84808624  0.92409230  0.97999262  1
  O  O151  1  0.73404508  0.03010730  0.08751461  1
  O  O152  1  0.87884741  0.50424410  0.53997969  1
  O  O153  1  0.29339793  0.28177293  0.00261214  1
  O  O154  1  0.35959559  0.73851243  0.48981646  1
  O  O155  1  0.65893804  0.87491290  0.95034316  1
  O  O156  1  0.44714287  0.45431619  0.25941571  1
  O  O157  1  0.55709765  0.18501423  0.48630409  1
  O  O158  1  0.54281393  0.20330241  0.13341330  1
  O  O159  1  0.63102459  0.51190326  0.21630394  1
  O  O160  1  0.31561585  0.26969377  0.23243800  1
  O  O161  1  0.61577005  0.02836269  0.37267197  1
  O  O162  1  0.45370254  0.88820722  0.37648924  1
  O  O163  1  0.68815932  0.49552676  0.57906656  1
  O  O164  1  0.86224832  0.32619742  0.63099748  1
  O  O165  1  0.00790334  0.04582653  0.31664968  1
  O  O166  1  0.67687046  0.40814700  0.74062662  1
  O  O167  1  0.18807650  0.21598759  0.42366463  1
  O  O168  1  0.91734107  0.78493708  0.59888275  1
  O  O169  1  0.10036029  0.86668796  0.68810338  1
  O  O170  1  0.98954596  0.36538716  0.94275080  1
  O  O171  1  0.56924184  0.51434714  0.92525968  1
  O  O172  1  0.05153021  0.36502609  0.51905639  1
  O  O173  1  0.80141312  0.31742505  0.83102653  1
  O  O174  1  0.62407600  0.12821843  0.98076220  1
  O  O175  1  0.81226282  0.25414920  0.03629105  1
  O  O176  1  0.38586961  0.54934713  0.59274902  1
  O  O177  1  0.82851585  0.11596386  0.90541521  1
  O  O178  1  0.74511016  0.30599773  0.38461704  1
  O  O179  1  0.50118897  0.81597257  0.11003393  1
  O  O180  1  0.91864409  0.66009975  0.25028346  1
  O  O181  1  0.33413382  0.36355859  0.40551117  1
  O  O182  1  0.23382023  0.07846909  0.71169626  1
  O  O183  1  0.16985651  0.13603386  0.22295546  1
  O  O184  1  0.73106942  0.67085560  0.24734188  1
  O  O185  1  0.77422234  0.13639342  0.44425809  1
  O  O186  1  0.25163236  0.92229108  0.85640151  1
  O  O187  1  0.21709102  0.27180168  0.80326552  1
  O  O188  1  0.82093363  0.94435388  0.49238887  1
  O  O189  1  0.35914085  0.19761428  0.54715822  1
  O  O190  1  0.23349263  0.02106768  0.41354784  1
  O  O191  1  0.96029478  0.12566472  0.12447405  1
