# generated using pymatgen
data_IrO2
_symmetry_space_group_name_H-M   'P 1'
_cell_length_a   10.20069438
_cell_length_b   10.66294101
_cell_length_c   10.63178405
_cell_angle_alpha   90.12936964
_cell_angle_beta   94.65457901
_cell_angle_gamma   85.89829059
_symmetry_Int_Tables_number   1
_chemical_formula_structural   IrO2
_chemical_formula_sum   'Ir32 O64'
_cell_volume   1149.63945878
_cell_formula_units_Z   32
loop_
 _symmetry_equiv_pos_site_id
 _symmetry_equiv_pos_as_xyz
  1  'x, y, z'
loop_
 _atom_site_type_symbol
 _atom_site_label
 _atom_site_symmetry_multiplicity
 _atom_site_fract_x
 _atom_site_fract_y
 _atom_site_fract_z
 _atom_site_occupancy
  Ir  Ir0  1  0.66406131  0.61849471  0.99763568  1
  Ir  Ir1  1  0.24639019  0.75673739  0.93133696  1
  Ir  Ir2  1  0.42040848  0.61604689  0.23667289  1
  Ir  Ir3  1  0.76294665  0.90094724  0.40595356  1
  Ir  Ir4  1  0.03622768  0.82555813  0.63662314  1
  Ir  Ir5  1  0.32180948  0.32207397  0.18519530  1
  Ir  Ir6  1  0.13488119  0.64696613  0.16937930  1
  Ir  Ir7  1  0.79261307  0.97198922  0.70821825  1
  Ir  Ir8  1  0.35059642  0.13646470  0.41062660  1
  Ir  Ir9  1  0.73597174  0.47795946  0.46912017  1
  Ir  Ir10  1  0.43570166  0.99491588  0.89586830  1
  Ir  Ir11  1  0.03576149  0.99025110  0.94023465  1
  Ir  Ir12  1  0.75040313  0.88011388  0.94078419  1
  Ir  Ir13  1  0.06403725  0.18631590  0.25121767  1
  Ir  Ir14  1  0.04968097  0.91752498  0.35949832  1
  Ir  Ir15  1  0.36305692  0.44992905  0.85564768  1
  Ir  Ir16  1  0.19459016  0.46675290  0.38263046  1
  Ir  Ir17  1  0.65884617  0.21012436  0.50725609  1
  Ir  Ir18  1  0.93429687  0.48600801  0.93443332  1
  Ir  Ir19  1  0.07834307  0.39762276  0.64981788  1
  Ir  Ir20  1  0.77767190  0.38737940  0.22212960  1
  Ir  Ir21  1  0.17821773  0.25453972  0.93741268  1
  Ir  Ir22  1  0.63456195  0.43529007  0.76951491  1
  Ir  Ir23  1  0.94533353  0.61560030  0.45687254  1
  Ir  Ir24  1  0.57886797  0.83843739  0.18800786  1
  Ir  Ir25  1  0.31976487  0.93336387  0.58994035  1
  Ir  Ir26  1  0.44967575  0.63028920  0.53195566  1
  Ir  Ir27  1  0.72685704  0.70415438  0.70503159  1
  Ir  Ir28  1  0.30911109  0.00160995  0.15977514  1
  Ir  Ir29  1  0.05687532  0.16450759  0.57504341  1
  Ir  Ir30  1  0.68285841  0.14368401  0.86011097  1
  Ir  Ir31  1  0.77675910  0.08617428  0.19250455  1
  O  O32  1  0.55512544  0.53869288  0.42467766  1
  O  O33  1  0.40194370  0.85070337  0.24494588  1
  O  O34  1  0.70623293  0.32308785  0.37541335  1
  O  O35  1  0.63865737  0.75536368  0.86641078  1
  O  O36  1  0.32204313  0.60424715  0.38760140  1
  O  O37  1  0.14150786  0.10303728  0.86391087  1
  O  O38  1  0.66461588  0.76716467  0.34143370  1
  O  O39  1  0.38518152  0.76535042  0.61482860  1
  O  O40  1  0.73252912  0.77639370  0.08928683  1
  O  O41  1  0.79465508  0.62682440  0.55911668  1
  O  O42  1  0.95874899  0.99864332  0.62837808  1
  O  O43  1  0.87077811  0.92678348  0.25879743  1
  O  O44  1  0.46431902  0.37122544  0.73664695  1
  O  O45  1  0.45556147  0.43664642  0.21933073  1
  O  O46  1  0.22570330  0.28037434  0.34248455  1
  O  O47  1  0.68040207  0.37538432  0.60479560  1
  O  O48  1  0.03189026  0.34362754  0.99723717  1
  O  O49  1  0.88917826  0.80094737  0.74311007  1
  O  O50  1  0.06377844  0.59699914  0.32938076  1
  O  O51  1  0.19802306  0.18218647  0.11536315  1
  O  O52  1  0.03575703  0.61395266  0.01161061  1
  O  O53  1  0.12367410  0.85739199  0.80875617  1
  O  O54  1  0.94399373  0.11280837  0.12944725  1
  O  O55  1  0.43546317  0.97692154  0.46959990  1
  O  O56  1  0.72964086  0.31146739  0.87586726  1
  O  O57  1  0.47125892  0.96081026  0.07028289  1
  O  O58  1  0.19505068  0.90720034  0.03519941  1
  O  O59  1  0.18270355  0.46105905  0.18928779  1
  O  O60  1  0.88356050  0.08041067  0.83980572  1
  O  O61  1  0.93557530  0.80809945  0.46157838  1
  O  O62  1  0.22108738  0.43276617  0.55759484  1
  O  O63  1  0.37657359  0.02582111  0.72576266  1
  O  O64  1  0.71919855  0.04666147  0.01975318  1
  O  O65  1  0.68484638  0.13078866  0.66743611  1
  O  O66  1  0.07242533  0.65238377  0.59426263  1
  O  O67  1  0.63581606  0.99162874  0.27129052  1
  O  O68  1  0.94230780  0.43590434  0.50165522  1
  O  O69  1  0.57477120  0.59921191  0.67757009  1
  O  O70  1  0.13129371  0.80462916  0.24267086  1
  O  O71  1  0.18523138  0.03292587  0.29407262  1
  O  O72  1  0.23401798  0.10415674  0.54622756  1
  O  O73  1  0.61537129  0.96906417  0.82238027  1
  O  O74  1  0.70592989  0.24931051  0.14124770  1
  O  O75  1  0.41572363  0.14569367  0.24031830  1
  O  O76  1  0.25646888  0.60097137  0.83781881  1
  O  O77  1  0.00227053  0.11310829  0.40720692  1
  O  O78  1  0.69831267  0.86646258  0.58467587  1
  O  O79  1  0.47278437  0.24247353  0.48646152  1
  O  O80  1  0.80361989  0.55856912  0.32105412  1
  O  O81  1  0.29493136  0.64981635  0.07700530  1
  O  O82  1  0.79921765  0.48596216  0.07405183  1
  O  O83  1  0.96488475  0.34351575  0.24774257  1
  O  O84  1  0.76961991  0.56743331  0.84375630  1
  O  O85  1  0.76865144  0.08697567  0.43103535  1
  O  O86  1  0.21253388  0.34877329  0.78729294  1
  O  O87  1  0.97192444  0.25888207  0.69076103  1
  O  O88  1  0.39642543  0.82407576  0.87708403  1
  O  O89  1  0.32621146  0.35278759  0.00180631  1
  O  O90  1  0.17141606  0.86107640  0.50420137  1
  O  O91  1  0.54151736  0.67170670  0.12055966  1
  O  O92  1  0.98543677  0.49517100  0.76799469  1
  O  O93  1  0.50220654  0.16166655  0.89946034  1
  O  O94  1  0.54926583  0.49667120  0.91767805  1
  O  O95  1  0.92724568  0.87318376  0.00367174  1
