# generated using pymatgen
data_IrO2
_symmetry_space_group_name_H-M   'P 1'
_cell_length_a   10.25891010
_cell_length_b   10.47511035
_cell_length_c   10.34072659
_cell_angle_alpha   89.84386546
_cell_angle_beta   89.11522734
_cell_angle_gamma   88.29472350
_symmetry_Int_Tables_number   1
_chemical_formula_structural   IrO2
_chemical_formula_sum   'Ir32 O64'
_cell_volume   1110.62029643
_cell_formula_units_Z   32
loop_
 _symmetry_equiv_pos_site_id
 _symmetry_equiv_pos_as_xyz
  1  'x, y, z'
loop_
 _atom_site_type_symbol
 _atom_site_label
 _atom_site_symmetry_multiplicity
 _atom_site_fract_x
 _atom_site_fract_y
 _atom_site_fract_z
 _atom_site_occupancy
  Ir  Ir0  1  0.64642469  0.60614774  0.99260935  1
  Ir  Ir1  1  0.26200744  0.75355048  0.81330802  1
  Ir  Ir2  1  0.39369873  0.57230375  0.25739908  1
  Ir  Ir3  1  0.75274561  0.89389338  0.42229611  1
  Ir  Ir4  1  0.01274272  0.82933782  0.65412130  1
  Ir  Ir5  1  0.32782230  0.30331498  0.15219008  1
  Ir  Ir6  1  0.10659110  0.66484708  0.11882139  1
  Ir  Ir7  1  0.75241113  0.01619955  0.70181879  1
  Ir  Ir8  1  0.34386270  0.14707300  0.39665696  1
  Ir  Ir9  1  0.67502489  0.56770493  0.46594512  1
  Ir  Ir10  1  0.46517095  0.99259848  0.90689160  1
  Ir  Ir11  1  0.05095737  0.99233609  0.94982255  1
  Ir  Ir12  1  0.80837833  0.88241294  0.94088901  1
  Ir  Ir13  1  0.06374827  0.18230993  0.25677670  1
  Ir  Ir14  1  0.04412399  0.92472967  0.37171579  1
  Ir  Ir15  1  0.36398817  0.43955833  0.85693251  1
  Ir  Ir16  1  0.20661697  0.48007760  0.36392849  1
  Ir  Ir17  1  0.64816161  0.22727469  0.51170957  1
  Ir  Ir18  1  0.89940755  0.46087609  0.92500744  1
  Ir  Ir19  1  0.09357042  0.44968986  0.64909273  1
  Ir  Ir20  1  0.78486647  0.37900213  0.23484847  1
  Ir  Ir21  1  0.15877258  0.26204114  0.92813947  1
  Ir  Ir22  1  0.63656249  0.40734939  0.76346194  1
  Ir  Ir23  1  0.96234507  0.61508800  0.45268754  1
  Ir  Ir24  1  0.58158667  0.81931968  0.20646376  1
  Ir  Ir25  1  0.31046506  0.96874359  0.61578985  1
  Ir  Ir26  1  0.39059613  0.60843980  0.56503305  1
  Ir  Ir27  1  0.71625290  0.70490123  0.71358041  1
  Ir  Ir28  1  0.30478872  0.92659830  0.16968565  1
  Ir  Ir29  1  0.08177699  0.12548827  0.62084774  1
  Ir  Ir30  1  0.72469186  0.17004809  0.96384773  1
  Ir  Ir31  1  0.79300402  0.06722347  0.21239159  1
  O  O32  1  0.49642926  0.56293368  0.40930701  1
  O  O33  1  0.41411573  0.83699722  0.29049650  1
  O  O34  1  0.76135530  0.24314415  0.36552869  1
  O  O35  1  0.58542456  0.71125310  0.85552397  1
  O  O36  1  0.28217853  0.65260147  0.40248109  1
  O  O37  1  0.11805943  0.12514449  0.81500668  1
  O  O38  1  0.68373764  0.73389843  0.35435391  1
  O  O39  1  0.35279841  0.79363322  0.65053867  1
  O  O40  1  0.73072613  0.75861059  0.06261505  1
  O  O41  1  0.82041868  0.60403938  0.58092465  1
  O  O42  1  0.93904153  0.00566478  0.64919649  1
  O  O43  1  0.87889020  0.90675095  0.26845411  1
  O  O44  1  0.46881890  0.37218749  0.71730969  1
  O  O45  1  0.46467057  0.41404040  0.19246828  1
  O  O46  1  0.22196555  0.29420224  0.32673717  1
  O  O47  1  0.66773421  0.40820391  0.56900933  1
  O  O48  1  -0.00076401  0.32571307  0.99122051  1
  O  O49  1  0.87687456  0.77087638  0.78764049  1
  O  O50  1  0.06268965  0.60030910  0.29539077  1
  O  O51  1  0.17470740  0.20484841  0.10938539  1
  O  O52  1  0.97383205  0.57913937  0.03855975  1
  O  O53  1  0.11895870  0.88335281  0.80771753  1
  O  O54  1  0.96110792  0.09925079  0.12321083  1
  O  O55  1  0.41693423  0.99200955  0.46751585  1
  O  O56  1  0.77820476  0.32680975  0.86147498  1
  O  O57  1  0.47595129  0.92586179  0.08886925  1
  O  O58  1  0.23212027  0.98643107  0.01118924  1
  O  O59  1  0.23313891  0.51357284  0.15697507  1
  O  O60  1  0.84727317  0.07589171  0.85831389  1
  O  O61  1  0.92564768  0.80833900  0.47713449  1
  O  O62  1  0.26851797  0.46101862  0.53809983  1
  O  O63  1  0.40829053  0.04962370  0.74078847  1
  O  O64  1  0.71771967  0.00190021  0.05759237  1
  O  O65  1  0.66652403  0.19520895  0.68914624  1
  O  O66  1  0.08207198  0.65596106  0.59318353  1
  O  O67  1  0.63588706  0.98045828  0.29747913  1
  O  O68  1  0.02907322  0.43735804  0.47148131  1
  O  O69  1  0.56883843  0.64039680  0.60795575  1
  O  O70  1  0.16123038  0.81313653  0.21204891  1
  O  O71  1  0.19041390  0.03096914  0.29701493  1
  O  O72  1  0.26406338  0.15783548  0.57524225  1
  O  O73  1  0.63819266  0.93832028  0.83573132  1
  O  O74  1  0.71638386  0.23152679  0.13961290  1
  O  O75  1  0.40809291  0.14617306  0.21698536  1
  O  O76  1  0.35159698  0.59559194  0.75559427  1
  O  O77  1  0.01100257  0.10738097  0.43928670  1
  O  O78  1  0.69296376  0.85836706  0.60764938  1
  O  O79  1  0.47700380  0.25493106  0.45543542  1
  O  O80  1  0.81678872  0.52435116  0.34492734  1
  O  O81  1  0.19486500  0.66432948  0.95433261  1
  O  O82  1  0.76176458  0.47394942  0.07842755  1
  O  O83  1  0.96788265  0.33776370  0.24440026  1
  O  O84  1  0.74745586  0.55441438  0.82779622  1
  O  O85  1  0.73441371  0.05684241  0.51672761  1
  O  O86  1  0.19874289  0.38597788  0.78939292  1
  O  O87  1  0.00555900  0.28648097  0.66154180  1
  O  O88  1  0.39664560  0.82809951  0.89713430  1
  O  O89  1  0.35007912  0.28107950  0.96020056  1
  O  O90  1  0.15219679  0.90183349  0.52977569  1
  O  O91  1  0.52864552  0.65686676  0.13536068  1
  O  O92  1  0.98076917  0.51436525  0.77399747  1
  O  O93  1  0.54651651  0.15466631  0.92769767  1
  O  O94  1  0.54536536  0.45854864  0.92733838  1
  O  O95  1  0.97250778  0.84994302  0.03595832  1
